*SPEF "1481-1998"
*DESIGN "top"
*DATE "Mon Dec  9 15:12:22 2024"
*VENDOR "Synopsys, Inc."
*PROGRAM "icc2 /packages/synopsys/icc2/S-2021.06-SP5-1/linux64/nwtn/bin/icc2_exec"
*VERSION "S-2021.06-SP5-1 Oct 15, 2022"
*DESIGN_FLOW "ICC2 SPEF DR"
*DIVIDER /
*DELIMITER :
*BUS_DELIMITER [ ]
*T_UNIT 1 NS
*C_UNIT 1 FF
*R_UNIT 1 OHM
*L_UNIT 1 HENRY

// XY_UNIT 1 UM
// PARASITIC_TECH tlup_min at 125.000 degree

*NAME_MAP
*1 clock
*2 start
*3 BestDist[7]
*4 BestDist[6]
*5 BestDist[5]
*6 BestDist[4]
*7 BestDist[3]
*8 BestDist[2]
*9 BestDist[1]
*10 BestDist[0]
*11 motionX[3]
*12 motionX[2]
*13 motionX[1]
*14 motionX[0]
*15 motionY[3]
*16 motionY[2]
*17 motionY[1]
*18 motionY[0]
*19 AddressR[7]
*20 AddressR[6]
*21 AddressR[5]
*22 AddressR[4]
*23 AddressR[3]
*24 AddressR[2]
*25 AddressR[1]
*26 AddressR[0]
*27 AddressS1[9]
*28 AddressS1[8]
*29 AddressS1[7]
*30 AddressS1[6]
*31 AddressS1[5]
*32 AddressS1[4]
*33 AddressS1[3]
*34 AddressS1[2]
*35 AddressS1[1]
*36 AddressS1[0]
*37 AddressS2[9]
*38 AddressS2[8]
*39 AddressS2[7]
*40 AddressS2[6]
*41 AddressS2[5]
*42 AddressS2[4]
*43 AddressS2[3]
*44 AddressS2[2]
*45 AddressS2[1]
*46 AddressS2[0]
*47 R[7]
*48 R[6]
*49 R[5]
*50 R[4]
*51 R[3]
*52 R[2]
*53 R[1]
*54 R[0]
*55 S1[7]
*56 S1[6]
*57 S1[5]
*58 S1[4]
*59 S1[3]
*60 S1[2]
*61 S1[1]
*62 S1[0]
*63 S2[7]
*64 S2[6]
*65 S2[5]
*66 S2[4]
*67 S2[3]
*68 S2[2]
*69 S2[1]
*70 S2[0]
*71 completed
*72 VDD
*73 VSS
*74 optlc_7
*75 optlc_8
*76 ctl_u/U4
*77 ctl_u/U5
*78 ctl_u/U8
*79 ctl_u/U9
*80 ctl_u/U11
*81 ctl_u/U17
*82 ctl_u/U19
*83 ctl_u/U21
*84 ctl_u/U25
*85 ctl_u/U27
*86 ctl_u/U29
*87 ctl_u/U34
*88 ctl_u/U35
*89 ctl_u/U36
*90 ctl_u/U40
*91 ctl_u/U41
*92 ctl_u/U43
*93 ctl_u/U44
*94 ctl_u/U46
*95 ctl_u/U47
*96 ctl_u/U50
*97 ctl_u/U53
*98 ctl_u/U54
*99 ctl_u/U55
*100 ctl_u/U56
*101 ctl_u/count_reg[9]
*102 ctl_u/count_reg[4]
*103 ctl_u/count_reg[7]
*104 ctl_u/count_reg[6]
*105 ctl_u/count_reg[5]
*106 ctl_u/count_reg[11]
*107 ctl_u/count_reg[12]
*108 ctl_u/count_reg[3]
*109 ctl_u/count_reg[2]
*110 ctl_u/count_reg[1]
*111 ctl_u/count_reg[0]
*112 ctl_u/count_reg[10]
*113 ctl_u/count_reg[8]
*114 ctl_u/add_126/U1_3
*115 ctl_u/add_123/U1_3
*116 ctl_u/add_126/U1_1
*117 ctl_u/add_126/U1_2
*118 ctl_u/add_123/U1_1
*119 ctl_u/add_123/U1_2
*120 ctl_u/U3
*121 ctl_u/U6
*122 ctl_u/U7
*123 ctl_u/U10
*124 ctl_u/U12
*125 ctl_u/U13
*126 ctl_u/U14
*127 ctl_u/U15
*128 ctl_u/U16
*129 ctl_u/U18
*130 ctl_u/U20
*131 ctl_u/U22
*132 ctl_u/U23
*133 ctl_u/U24
*134 ctl_u/U26
*135 ctl_u/U28
*136 ctl_u/U30
*137 ctl_u/U31
*138 ctl_u/U32
*139 ctl_u/U33
*140 ctl_u/U37
*141 ctl_u/U38
*142 ctl_u/U39
*143 ctl_u/U42
*144 ctl_u/U45
*145 ctl_u/U48
*146 ctl_u/ctmTdsLR_2_2540_roptpi_2541
*147 ctl_u/U51
*148 ctl_u/U52
*149 ctl_u/U57
*150 ctl_u/U58
*151 ctl_u/U59
*152 ctl_u/U60
*153 ctl_u/U61
*154 ctl_u/U62
*155 ctl_u/U63
*156 ctl_u/U64
*157 ctl_u/U65
*158 ctl_u/U66
*159 ctl_u/U67
*160 ctl_u/U68
*161 ctl_u/U69
*162 ctl_u/U70
*163 ctl_u/U71
*164 ctl_u/U72
*165 ctl_u/U73
*166 ctl_u/U74
*167 ctl_u/U75
*168 optlc_11
*169 ctl_u/U77
*170 ctl_u/U78
*171 ctl_u/U79
*172 ctl_u/U80
*173 ctl_u/U81
*174 ctl_u/U82
*175 ctl_u/U83
*176 ctl_u/U84
*177 ctl_u/U85
*178 ctl_u/U86
*179 ctl_u/U87
*180 ctl_u/U88
*181 ctl_u/U89
*182 ctl_u/U90
*183 ctl_u/U91
*184 ctl_u/U92
*185 ctl_u/U93
*186 ctl_u/U94
*187 ctl_u/U95
*188 ctl_u/U96
*189 ctl_u/U97
*190 ctl_u/U98
*191 ctl_u/U99
*192 ctl_u/U100
*193 ctl_u/U101
*194 ctl_u/U102
*195 ctl_u/add_113/U1_1_11
*196 ctl_u/add_113/U1_1_2
*197 ctl_u/add_113/U1_1_5
*198 ctl_u/add_113/U1_1_6
*199 ctl_u/add_113/U1_1_7
*200 ctl_u/add_113/U1_1_9
*201 ctl_u/add_113/U1_1_4
*202 ctl_u/add_113/U1_1_1
*203 ctl_u/add_113/U1_1_10
*204 ctl_u/add_113/U1_1_8
*205 ctl_u/add_113/U1_1_3
*206 ctl_u/add_113/U1
*207 ctl_u/add_113/U2
*208 pe_u/pe0/Accumulate_reg[0]
*209 pe_u/pe0/Accumulate_reg[7]
*210 pe_u/pe0/Accumulate_reg[6]
*211 pe_u/pe0/Accumulate_reg[5]
*212 pe_u/pe0/Accumulate_reg[4]
*213 pe_u/pe0/Accumulate_reg[3]
*214 pe_u/pe0/Accumulate_reg[2]
*215 pe_u/pe0/Accumulate_reg[1]
*216 pe_u/pe0/U15
*217 pe_u/pe0/U16
*218 pe_u/pe0/U17
*219 pe_u/pe0/U18
*220 pe_u/pe0/U19
*221 pe_u/pe0/U20
*222 pe_u/pe0/U21
*223 pe_u/pe0/U22
*224 pe_u/pe0/Rpipe_reg[7]
*225 pe_u/pe0/Rpipe_reg[6]
*226 pe_u/pe0/Rpipe_reg[5]
*227 pe_u/pe0/Rpipe_reg[4]
*228 pe_u/pe0/Rpipe_reg[3]
*229 pe_u/pe0/Rpipe_reg[2]
*230 pe_u/pe0/Rpipe_reg[1]
*231 pe_u/pe0/Rpipe_reg[0]
*232 pe_u/pe0/U3
*233 pe_u/pe0/U4
*234 pe_u/pe0/U5
*235 pe_u/pe0/U6
*236 pe_u/pe0/U7
*237 pe_u/pe0/U8
*238 pe_u/pe0/U9
*239 pe_u/pe0/U10
*240 pe_u/pe0/U11
*241 pe_u/pe0/U12
*242 pe_u/pe0/add_52/U1_7
*243 pe_u/pe0/add_52/U1_6
*244 pe_u/pe0/add_52/U1_5
*245 pe_u/pe0/add_52/U1_4
*246 pe_u/pe0/add_52/U1_3
*247 pe_u/pe0/add_52/U1_2
*248 pe_u/pe0/add_52/U1_1
*249 pe_u/pe0/add_52/U1
*250 pe_u/pe0/add_52/U2
*251 pe_u/pe0/sub_46/U2_7
*252 pe_u/pe0/sub_46/U2_6
*253 pe_u/pe0/sub_46/U2_5
*254 pe_u/pe0/sub_46/U2_4
*255 pe_u/pe0/sub_46/U2_3
*256 pe_u/pe0/sub_46/U2_2
*257 pe_u/pe0/sub_46/U2_1
*258 pe_u/pe0/sub_46/U1
*259 pe_u/pe0/sub_46/U2
*260 pe_u/pe0/sub_46/U3
*261 pe_u/pe0/sub_46/U4
*262 pe_u/pe0/sub_46/U5
*263 pe_u/pe0/sub_46/U6
*264 pe_u/pe0/sub_46/U7
*265 pe_u/pe0/sub_46/U8
*266 pe_u/pe0/sub_46/U9
*267 pe_u/pe0/sub_46/U10
*268 pe_u/pe1/Accumulate_reg[0]
*269 pe_u/pe1/Accumulate_reg[7]
*270 pe_u/pe1/Accumulate_reg[6]
*271 pe_u/pe1/Accumulate_reg[5]
*272 pe_u/pe1/Accumulate_reg[4]
*273 pe_u/pe1/Accumulate_reg[3]
*274 pe_u/pe1/Accumulate_reg[2]
*275 pe_u/pe1/Accumulate_reg[1]
*276 pe_u/pe1/U15
*277 pe_u/pe1/U16
*278 pe_u/pe1/U17
*279 pe_u/pe1/U18
*280 pe_u/pe1/U19
*281 pe_u/pe1/U20
*282 pe_u/pe1/U21
*283 pe_u/pe1/U22
*284 pe_u/pe1/Rpipe_reg[7]
*285 pe_u/pe1/Rpipe_reg[6]
*286 pe_u/pe1/Rpipe_reg[5]
*287 pe_u/pe1/Rpipe_reg[4]
*288 pe_u/pe1/Rpipe_reg[3]
*289 pe_u/pe1/Rpipe_reg[2]
*290 pe_u/pe1/Rpipe_reg[1]
*291 pe_u/pe1/Rpipe_reg[0]
*292 pe_u/pe1/U3
*293 pe_u/pe1/U4
*294 pe_u/pe1/U5
*295 pe_u/pe1/U6
*296 pe_u/pe1/U7
*297 pe_u/pe1/U8
*298 pe_u/pe1/U9
*299 pe_u/pe1/U10
*300 pe_u/pe1/U11
*301 pe_u/pe1/U12
*302 pe_u/pe1/add_52/U1_7
*303 pe_u/pe1/add_52/U1_6
*304 pe_u/pe1/add_52/U1_5
*305 pe_u/pe1/add_52/U1_4
*306 pe_u/pe1/add_52/U1_3
*307 pe_u/pe1/add_52/U1_2
*308 pe_u/pe1/add_52/U1_1
*309 pe_u/pe1/add_52/U1
*310 pe_u/pe1/add_52/U2
*311 pe_u/pe1/sub_46/U2_7
*312 pe_u/pe1/sub_46/U2_1
*313 pe_u/pe1/sub_46/U2_6
*314 pe_u/pe1/sub_46/U2_5
*315 pe_u/pe1/sub_46/U2_4
*316 pe_u/pe1/sub_46/U2_3
*317 pe_u/pe1/sub_46/U2_2
*318 pe_u/pe1/sub_46/U1
*319 pe_u/pe1/sub_46/U2
*320 pe_u/pe1/sub_46/U3
*321 pe_u/pe1/sub_46/U4
*322 pe_u/pe1/sub_46/U5
*323 pe_u/pe1/sub_46/U6
*324 pe_u/pe1/sub_46/U7
*325 pe_u/pe1/sub_46/U8
*326 pe_u/pe1/sub_46/U9
*327 pe_u/pe1/sub_46/U10
*328 pe_u/pe2/Accumulate_reg[0]
*329 pe_u/pe2/Accumulate_reg[7]
*330 pe_u/pe2/Accumulate_reg[6]
*331 pe_u/pe2/Accumulate_reg[5]
*332 pe_u/pe2/Accumulate_reg[4]
*333 pe_u/pe2/Accumulate_reg[3]
*334 pe_u/pe2/Accumulate_reg[2]
*335 pe_u/pe2/Accumulate_reg[1]
*336 pe_u/pe2/U15
*337 pe_u/pe2/U16
*338 pe_u/pe2/U17
*339 pe_u/pe2/U18
*340 pe_u/pe2/U19
*341 pe_u/pe2/U20
*342 pe_u/pe2/U21
*343 pe_u/pe2/U22
*344 pe_u/pe2/Rpipe_reg[7]
*345 pe_u/pe2/Rpipe_reg[6]
*346 pe_u/pe2/Rpipe_reg[5]
*347 pe_u/pe2/Rpipe_reg[4]
*348 pe_u/pe2/Rpipe_reg[3]
*349 pe_u/pe2/Rpipe_reg[2]
*350 pe_u/pe2/Rpipe_reg[1]
*351 pe_u/pe2/Rpipe_reg[0]
*352 pe_u/pe2/U3
*353 pe_u/pe2/U4
*354 pe_u/pe2/U5
*355 pe_u/pe2/U6
*356 pe_u/pe2/U7
*357 pe_u/pe2/U8
*358 pe_u/pe2/U9
*359 pe_u/pe2/U10
*360 pe_u/pe2/U11
*361 pe_u/pe2/U12
*362 pe_u/pe2/add_52/U1_7
*363 pe_u/pe2/add_52/U1_6
*364 pe_u/pe2/add_52/U1_5
*365 pe_u/pe2/add_52/U1_4
*366 pe_u/pe2/add_52/U1_3
*367 pe_u/pe2/add_52/U1_2
*368 pe_u/pe2/add_52/U1_1
*369 pe_u/pe2/add_52/U1
*370 pe_u/pe2/add_52/U2
*371 pe_u/pe2/sub_46/U2_7
*372 pe_u/pe2/sub_46/U2_1
*373 pe_u/pe2/sub_46/U2_6
*374 pe_u/pe2/sub_46/U2_5
*375 pe_u/pe2/sub_46/U2_4
*376 pe_u/pe2/sub_46/U2_3
*377 pe_u/pe2/sub_46/U2_2
*378 pe_u/pe2/sub_46/U1
*379 pe_u/pe2/sub_46/U2
*380 pe_u/pe2/sub_46/U3
*381 pe_u/pe2/sub_46/U4
*382 pe_u/pe2/sub_46/U5
*383 pe_u/pe2/sub_46/U6
*384 pe_u/pe2/sub_46/U7
*385 pe_u/pe2/sub_46/U8
*386 pe_u/pe2/sub_46/U9
*387 pe_u/pe2/sub_46/U10
*388 pe_u/pe3/Accumulate_reg[0]
*389 pe_u/pe3/Accumulate_reg[7]
*390 pe_u/pe3/Accumulate_reg[6]
*391 pe_u/pe3/Accumulate_reg[5]
*392 pe_u/pe3/Accumulate_reg[4]
*393 pe_u/pe3/Accumulate_reg[3]
*394 pe_u/pe3/Accumulate_reg[2]
*395 pe_u/pe3/Accumulate_reg[1]
*396 pe_u/pe3/U15
*397 pe_u/pe3/U16
*398 pe_u/pe3/U17
*399 pe_u/pe3/U18
*400 pe_u/pe3/U19
*401 pe_u/pe3/U20
*402 pe_u/pe3/U21
*403 pe_u/pe3/U22
*404 pe_u/pe3/Rpipe_reg[7]
*405 pe_u/pe3/Rpipe_reg[6]
*406 pe_u/pe3/Rpipe_reg[5]
*407 pe_u/pe3/Rpipe_reg[4]
*408 pe_u/pe3/Rpipe_reg[3]
*409 pe_u/pe3/Rpipe_reg[2]
*410 pe_u/pe3/Rpipe_reg[1]
*411 pe_u/pe3/Rpipe_reg[0]
*412 pe_u/pe3/U3
*413 pe_u/pe3/U4
*414 pe_u/pe3/U5
*415 pe_u/pe3/U6
*416 pe_u/pe3/U7
*417 pe_u/pe3/U8
*418 pe_u/pe3/U9
*419 pe_u/pe3/U10
*420 pe_u/pe3/U11
*421 pe_u/pe3/U12
*422 pe_u/pe3/add_52/U1_7
*423 pe_u/pe3/add_52/U1_6
*424 pe_u/pe3/add_52/U1_5
*425 pe_u/pe3/add_52/U1_4
*426 pe_u/pe3/add_52/U1_3
*427 pe_u/pe3/add_52/U1_2
*428 pe_u/pe3/add_52/U1_1
*429 pe_u/pe3/add_52/U1
*430 pe_u/pe3/add_52/U2
*431 pe_u/pe3/sub_46/U2_7
*432 pe_u/pe3/sub_46/U2_1
*433 pe_u/pe3/sub_46/U2_6
*434 pe_u/pe3/sub_46/U2_5
*435 pe_u/pe3/sub_46/U2_4
*436 pe_u/pe3/sub_46/U2_3
*437 pe_u/pe3/sub_46/U2_2
*438 pe_u/pe3/sub_46/U1
*439 pe_u/pe3/sub_46/U2
*440 pe_u/pe3/sub_46/U3
*441 pe_u/pe3/sub_46/U4
*442 pe_u/pe3/sub_46/U5
*443 pe_u/pe3/sub_46/U6
*444 pe_u/pe3/sub_46/U7
*445 pe_u/pe3/sub_46/U8
*446 pe_u/pe3/sub_46/U9
*447 pe_u/pe3/sub_46/U10
*448 pe_u/pe4/Accumulate_reg[0]
*449 pe_u/pe4/Accumulate_reg[7]
*450 pe_u/pe4/Accumulate_reg[6]
*451 pe_u/pe4/Accumulate_reg[5]
*452 pe_u/pe4/Accumulate_reg[4]
*453 pe_u/pe4/Accumulate_reg[3]
*454 pe_u/pe4/Accumulate_reg[2]
*455 pe_u/pe4/Accumulate_reg[1]
*456 pe_u/pe4/U15
*457 pe_u/pe4/U16
*458 pe_u/pe4/U17
*459 pe_u/pe4/U18
*460 pe_u/pe4/U19
*461 pe_u/pe4/U20
*462 pe_u/pe4/U21
*463 pe_u/pe4/U22
*464 pe_u/pe4/Rpipe_reg[7]
*465 pe_u/pe4/Rpipe_reg[6]
*466 pe_u/pe4/Rpipe_reg[5]
*467 pe_u/pe4/Rpipe_reg[4]
*468 pe_u/pe4/Rpipe_reg[3]
*469 pe_u/pe4/Rpipe_reg[2]
*470 pe_u/pe4/Rpipe_reg[1]
*471 pe_u/pe4/Rpipe_reg[0]
*472 pe_u/pe4/U3
*473 pe_u/pe4/U4
*474 pe_u/pe4/U5
*475 pe_u/pe4/U6
*476 pe_u/pe4/U7
*477 pe_u/pe4/U8
*478 pe_u/pe4/U9
*479 pe_u/pe4/U10
*480 pe_u/pe4/U11
*481 pe_u/pe4/U12
*482 pe_u/pe4/add_52/U1_7
*483 pe_u/pe4/add_52/U1_6
*484 pe_u/pe4/add_52/U1_5
*485 pe_u/pe4/add_52/U1_4
*486 pe_u/pe4/add_52/U1_3
*487 pe_u/pe4/add_52/U1_2
*488 pe_u/pe4/add_52/U1_1
*489 pe_u/pe4/add_52/U1
*490 pe_u/pe4/add_52/U2
*491 pe_u/pe4/sub_46/U2_7
*492 pe_u/pe4/sub_46/U2_1
*493 pe_u/pe4/sub_46/U2_6
*494 pe_u/pe4/sub_46/U2_5
*495 pe_u/pe4/sub_46/U2_4
*496 pe_u/pe4/sub_46/U2_3
*497 pe_u/pe4/sub_46/U2_2
*498 pe_u/pe4/sub_46/U1
*499 pe_u/pe4/sub_46/U2
*500 pe_u/pe4/sub_46/U3
*501 pe_u/pe4/sub_46/U4
*502 pe_u/pe4/sub_46/U5
*503 pe_u/pe4/sub_46/U6
*504 pe_u/pe4/sub_46/U7
*505 pe_u/pe4/sub_46/U8
*506 pe_u/pe4/sub_46/U9
*507 pe_u/pe4/sub_46/U10
*508 pe_u/pe5/Accumulate_reg[0]
*509 pe_u/pe5/Accumulate_reg[7]
*510 pe_u/pe5/Accumulate_reg[6]
*511 pe_u/pe5/Accumulate_reg[5]
*512 pe_u/pe5/Accumulate_reg[4]
*513 pe_u/pe5/Accumulate_reg[3]
*514 pe_u/pe5/Accumulate_reg[2]
*515 pe_u/pe5/Accumulate_reg[1]
*516 pe_u/pe5/U15
*517 pe_u/pe5/U16
*518 pe_u/pe5/U17
*519 pe_u/pe5/U18
*520 pe_u/pe5/U19
*521 pe_u/pe5/U20
*522 pe_u/pe5/U21
*523 pe_u/pe5/U22
*524 pe_u/pe5/Rpipe_reg[7]
*525 pe_u/pe5/Rpipe_reg[6]
*526 pe_u/pe5/Rpipe_reg[5]
*527 pe_u/pe5/Rpipe_reg[4]
*528 pe_u/pe5/Rpipe_reg[3]
*529 pe_u/pe5/Rpipe_reg[2]
*530 pe_u/pe5/Rpipe_reg[1]
*531 pe_u/pe5/Rpipe_reg[0]
*532 pe_u/pe5/U3
*533 pe_u/pe5/U4
*534 pe_u/pe5/U5
*535 pe_u/pe5/U6
*536 pe_u/pe5/U7
*537 pe_u/pe5/U8
*538 pe_u/pe5/U9
*539 pe_u/pe5/U10
*540 pe_u/pe5/U11
*541 pe_u/pe5/U12
*542 pe_u/pe5/add_52/U1_7
*543 pe_u/pe5/add_52/U1_6
*544 pe_u/pe5/add_52/U1_5
*545 pe_u/pe5/add_52/U1_4
*546 pe_u/pe5/add_52/U1_3
*547 pe_u/pe5/add_52/U1_2
*548 pe_u/pe5/add_52/U1_1
*549 pe_u/pe5/add_52/U1
*550 pe_u/pe5/add_52/U2
*551 pe_u/pe5/sub_46/U2_7
*552 pe_u/pe5/sub_46/U2_6
*553 pe_u/pe5/sub_46/U2_5
*554 pe_u/pe5/sub_46/U2_4
*555 pe_u/pe5/sub_46/U2_3
*556 pe_u/pe5/sub_46/U2_2
*557 pe_u/pe5/sub_46/U2_1
*558 pe_u/pe5/sub_46/U1
*559 pe_u/pe5/sub_46/U2
*560 pe_u/pe5/sub_46/U3
*561 pe_u/pe5/sub_46/U4
*562 pe_u/pe5/sub_46/U5
*563 pe_u/pe5/sub_46/U6
*564 pe_u/pe5/sub_46/U7
*565 pe_u/pe5/sub_46/U8
*566 pe_u/pe5/sub_46/U9
*567 pe_u/pe5/sub_46/U10
*568 pe_u/pe6/Accumulate_reg[0]
*569 pe_u/pe6/Accumulate_reg[7]
*570 pe_u/pe6/Accumulate_reg[6]
*571 pe_u/pe6/Accumulate_reg[5]
*572 pe_u/pe6/Accumulate_reg[4]
*573 pe_u/pe6/Accumulate_reg[3]
*574 pe_u/pe6/Accumulate_reg[2]
*575 pe_u/pe6/Accumulate_reg[1]
*576 pe_u/pe6/U15
*577 pe_u/pe6/U16
*578 pe_u/pe6/U17
*579 pe_u/pe6/U18
*580 pe_u/pe6/U19
*581 pe_u/pe6/U20
*582 pe_u/pe6/U21
*583 pe_u/pe6/U22
*584 pe_u/pe6/Rpipe_reg[7]
*585 pe_u/pe6/Rpipe_reg[6]
*586 pe_u/pe6/Rpipe_reg[5]
*587 pe_u/pe6/Rpipe_reg[4]
*588 pe_u/pe6/Rpipe_reg[3]
*589 pe_u/pe6/Rpipe_reg[2]
*590 pe_u/pe6/Rpipe_reg[1]
*591 pe_u/pe6/Rpipe_reg[0]
*592 pe_u/pe6/U3
*593 pe_u/pe6/U4
*594 pe_u/pe6/U5
*595 pe_u/pe6/U6
*596 pe_u/pe6/U7
*597 pe_u/pe6/U8
*598 pe_u/pe6/U9
*599 pe_u/pe6/U10
*600 pe_u/pe6/U11
*601 pe_u/pe6/U12
*602 pe_u/pe6/add_52/U1_7
*603 pe_u/pe6/add_52/U1_6
*604 pe_u/pe6/add_52/U1_5
*605 pe_u/pe6/add_52/U1_4
*606 pe_u/pe6/add_52/U1_3
*607 pe_u/pe6/add_52/U1_2
*608 pe_u/pe6/add_52/U1_1
*609 pe_u/pe6/add_52/U1
*610 pe_u/pe6/add_52/U2
*611 pe_u/pe6/sub_46/U2_7
*612 pe_u/pe6/sub_46/U2_6
*613 pe_u/pe6/sub_46/U2_5
*614 pe_u/pe6/sub_46/U2_4
*615 pe_u/pe6/sub_46/U2_3
*616 pe_u/pe6/sub_46/U2_2
*617 pe_u/pe6/sub_46/U2_1
*618 pe_u/pe6/sub_46/U1
*619 pe_u/pe6/sub_46/U2
*620 pe_u/pe6/sub_46/U3
*621 pe_u/pe6/sub_46/U4
*622 pe_u/pe6/sub_46/U5
*623 pe_u/pe6/sub_46/U6
*624 pe_u/pe6/sub_46/U7
*625 pe_u/pe6/sub_46/U8
*626 pe_u/pe6/sub_46/U9
*627 pe_u/pe6/sub_46/U10
*628 pe_u/pe7/Accumulate_reg[0]
*629 pe_u/pe7/Accumulate_reg[7]
*630 pe_u/pe7/Accumulate_reg[6]
*631 pe_u/pe7/Accumulate_reg[5]
*632 pe_u/pe7/Accumulate_reg[4]
*633 pe_u/pe7/Accumulate_reg[3]
*634 pe_u/pe7/Accumulate_reg[2]
*635 pe_u/pe7/Accumulate_reg[1]
*636 pe_u/pe7/U15
*637 pe_u/pe7/U16
*638 pe_u/pe7/U17
*639 pe_u/pe7/U18
*640 pe_u/pe7/U19
*641 pe_u/pe7/U20
*642 pe_u/pe7/U21
*643 pe_u/pe7/U22
*644 pe_u/pe7/Rpipe_reg[7]
*645 pe_u/pe7/Rpipe_reg[6]
*646 pe_u/pe7/Rpipe_reg[5]
*647 pe_u/pe7/Rpipe_reg[4]
*648 pe_u/pe7/Rpipe_reg[3]
*649 pe_u/pe7/Rpipe_reg[2]
*650 pe_u/pe7/Rpipe_reg[1]
*651 pe_u/pe7/Rpipe_reg[0]
*652 pe_u/pe7/U3
*653 pe_u/pe7/U4
*654 pe_u/pe7/U5
*655 pe_u/pe7/U6
*656 pe_u/pe7/U7
*657 pe_u/pe7/U8
*658 pe_u/pe7/U9
*659 pe_u/pe7/U10
*660 pe_u/pe7/U11
*661 pe_u/pe7/U12
*662 pe_u/pe7/add_52/U1_7
*663 pe_u/pe7/add_52/U1_6
*664 pe_u/pe7/add_52/U1_5
*665 pe_u/pe7/add_52/U1_4
*666 pe_u/pe7/add_52/U1_3
*667 pe_u/pe7/add_52/U1_2
*668 pe_u/pe7/add_52/U1_1
*669 pe_u/pe7/add_52/U1
*670 pe_u/pe7/add_52/U2
*671 pe_u/pe7/sub_46/U2_7
*672 pe_u/pe7/sub_46/U2_1
*673 pe_u/pe7/sub_46/U2_6
*674 pe_u/pe7/sub_46/U2_5
*675 pe_u/pe7/sub_46/U2_4
*676 pe_u/pe7/sub_46/U2_3
*677 pe_u/pe7/sub_46/U2_2
*678 pe_u/pe7/sub_46/U1
*679 pe_u/pe7/sub_46/U2
*680 pe_u/pe7/sub_46/U3
*681 pe_u/pe7/sub_46/U4
*682 pe_u/pe7/sub_46/U5
*683 pe_u/pe7/sub_46/U6
*684 pe_u/pe7/sub_46/U7
*685 pe_u/pe7/sub_46/U8
*686 pe_u/pe7/sub_46/U9
*687 pe_u/pe7/sub_46/U10
*688 pe_u/pe8/Accumulate_reg[0]
*689 pe_u/pe8/Accumulate_reg[7]
*690 pe_u/pe8/Accumulate_reg[6]
*691 pe_u/pe8/Accumulate_reg[5]
*692 pe_u/pe8/Accumulate_reg[4]
*693 pe_u/pe8/Accumulate_reg[3]
*694 pe_u/pe8/Accumulate_reg[2]
*695 pe_u/pe8/Accumulate_reg[1]
*696 pe_u/pe8/U15
*697 pe_u/pe8/U16
*698 pe_u/pe8/U17
*699 pe_u/pe8/U18
*700 pe_u/pe8/U19
*701 pe_u/pe8/U20
*702 pe_u/pe8/U21
*703 pe_u/pe8/U22
*704 pe_u/pe8/Rpipe_reg[7]
*705 pe_u/pe8/Rpipe_reg[6]
*706 pe_u/pe8/Rpipe_reg[5]
*707 pe_u/pe8/Rpipe_reg[4]
*708 pe_u/pe8/Rpipe_reg[3]
*709 pe_u/pe8/Rpipe_reg[2]
*710 pe_u/pe8/Rpipe_reg[1]
*711 pe_u/pe8/Rpipe_reg[0]
*712 pe_u/pe8/U3
*713 pe_u/pe8/U4
*714 pe_u/pe8/U5
*715 pe_u/pe8/U6
*716 pe_u/pe8/U7
*717 pe_u/pe8/U8
*718 pe_u/pe8/U9
*719 pe_u/pe8/U10
*720 pe_u/pe8/U11
*721 pe_u/pe8/U12
*722 pe_u/pe8/add_52/U1_7
*723 pe_u/pe8/add_52/U1_6
*724 pe_u/pe8/add_52/U1_5
*725 pe_u/pe8/add_52/U1_4
*726 pe_u/pe8/add_52/U1_3
*727 pe_u/pe8/add_52/U1_2
*728 pe_u/pe8/add_52/U1_1
*729 pe_u/pe8/add_52/U1
*730 pe_u/pe8/add_52/U2
*731 pe_u/pe8/sub_46/U2_7
*732 pe_u/pe8/sub_46/U2_1
*733 pe_u/pe8/sub_46/U2_6
*734 pe_u/pe8/sub_46/U2_5
*735 pe_u/pe8/sub_46/U2_4
*736 pe_u/pe8/sub_46/U2_3
*737 pe_u/pe8/sub_46/U2_2
*738 pe_u/pe8/sub_46/U1
*739 pe_u/pe8/sub_46/U2
*740 pe_u/pe8/sub_46/U3
*741 pe_u/pe8/sub_46/U4
*742 pe_u/pe8/sub_46/U5
*743 pe_u/pe8/sub_46/U6
*744 pe_u/pe8/sub_46/U7
*745 pe_u/pe8/sub_46/U8
*746 pe_u/pe8/sub_46/U9
*747 pe_u/pe8/sub_46/U10
*748 pe_u/pe9/Accumulate_reg[0]
*749 pe_u/pe9/Accumulate_reg[7]
*750 pe_u/pe9/Accumulate_reg[6]
*751 pe_u/pe9/Accumulate_reg[5]
*752 pe_u/pe9/Accumulate_reg[4]
*753 pe_u/pe9/Accumulate_reg[3]
*754 pe_u/pe9/Accumulate_reg[2]
*755 pe_u/pe9/Accumulate_reg[1]
*756 pe_u/pe9/U15
*757 pe_u/pe9/U16
*758 pe_u/pe9/U17
*759 pe_u/pe9/U18
*760 pe_u/pe9/U19
*761 pe_u/pe9/U20
*762 pe_u/pe9/U21
*763 pe_u/pe9/U22
*764 pe_u/pe9/Rpipe_reg[7]
*765 pe_u/pe9/Rpipe_reg[6]
*766 pe_u/pe9/Rpipe_reg[5]
*767 pe_u/pe9/Rpipe_reg[4]
*768 pe_u/pe9/Rpipe_reg[3]
*769 pe_u/pe9/Rpipe_reg[2]
*770 pe_u/pe9/Rpipe_reg[1]
*771 pe_u/pe9/Rpipe_reg[0]
*772 pe_u/pe9/U3
*773 pe_u/pe9/U4
*774 pe_u/pe9/U5
*775 pe_u/pe9/U6
*776 pe_u/pe9/U7
*777 pe_u/pe9/U8
*778 pe_u/pe9/U9
*779 pe_u/pe9/U10
*780 pe_u/pe9/U11
*781 pe_u/pe9/U12
*782 pe_u/pe9/add_52/U1_7
*783 pe_u/pe9/add_52/U1_6
*784 pe_u/pe9/add_52/U1_5
*785 pe_u/pe9/add_52/U1_4
*786 pe_u/pe9/add_52/U1_3
*787 pe_u/pe9/add_52/U1_2
*788 pe_u/pe9/add_52/U1_1
*789 pe_u/pe9/add_52/U1
*790 pe_u/pe9/add_52/U2
*791 pe_u/pe9/sub_46/U2_7
*792 pe_u/pe9/sub_46/U2_1
*793 pe_u/pe9/sub_46/U2_6
*794 pe_u/pe9/sub_46/U2_5
*795 pe_u/pe9/sub_46/U2_4
*796 pe_u/pe9/sub_46/U2_3
*797 pe_u/pe9/sub_46/U2_2
*798 pe_u/pe9/sub_46/U1
*799 pe_u/pe9/sub_46/U2
*800 pe_u/pe9/sub_46/U3
*801 pe_u/pe9/sub_46/U4
*802 pe_u/pe9/sub_46/U5
*803 pe_u/pe9/sub_46/U6
*804 pe_u/pe9/sub_46/U7
*805 pe_u/pe9/sub_46/U8
*806 pe_u/pe9/sub_46/U9
*807 pe_u/pe9/sub_46/U10
*808 pe_u/pe10/Accumulate_reg[0]
*809 pe_u/pe10/Accumulate_reg[7]
*810 pe_u/pe10/Accumulate_reg[6]
*811 pe_u/pe10/Accumulate_reg[5]
*812 pe_u/pe10/Accumulate_reg[4]
*813 pe_u/pe10/Accumulate_reg[3]
*814 pe_u/pe10/Accumulate_reg[2]
*815 pe_u/pe10/Accumulate_reg[1]
*816 pe_u/pe10/U15
*817 pe_u/pe10/U16
*818 pe_u/pe10/U17
*819 pe_u/pe10/U18
*820 pe_u/pe10/U19
*821 pe_u/pe10/U20
*822 pe_u/pe10/U21
*823 pe_u/pe10/U22
*824 pe_u/pe10/Rpipe_reg[7]
*825 pe_u/pe10/Rpipe_reg[6]
*826 pe_u/pe10/Rpipe_reg[5]
*827 pe_u/pe10/Rpipe_reg[4]
*828 pe_u/pe10/Rpipe_reg[3]
*829 pe_u/pe10/Rpipe_reg[2]
*830 pe_u/pe10/Rpipe_reg[1]
*831 pe_u/pe10/Rpipe_reg[0]
*832 pe_u/pe10/U3
*833 pe_u/pe10/U4
*834 pe_u/pe10/U5
*835 pe_u/pe10/U6
*836 pe_u/pe10/U7
*837 pe_u/pe10/U8
*838 pe_u/pe10/U9
*839 pe_u/pe10/U10
*840 pe_u/pe10/U11
*841 pe_u/pe10/U12
*842 pe_u/pe10/add_52/U1_7
*843 pe_u/pe10/add_52/U1_6
*844 pe_u/pe10/add_52/U1_5
*845 pe_u/pe10/add_52/U1_4
*846 pe_u/pe10/add_52/U1_3
*847 pe_u/pe10/add_52/U1_2
*848 pe_u/pe10/add_52/U1_1
*849 pe_u/pe10/add_52/U1
*850 pe_u/pe10/add_52/U2
*851 pe_u/pe10/sub_46/U2_7
*852 pe_u/pe10/sub_46/U2_6
*853 pe_u/pe10/sub_46/U2_5
*854 pe_u/pe10/sub_46/U2_4
*855 pe_u/pe10/sub_46/U2_3
*856 pe_u/pe10/sub_46/U2_2
*857 pe_u/pe10/sub_46/U2_1
*858 pe_u/pe10/sub_46/U1
*859 pe_u/pe10/sub_46/U2
*860 pe_u/pe10/sub_46/U3
*861 pe_u/pe10/sub_46/U4
*862 pe_u/pe10/sub_46/U5
*863 pe_u/pe10/sub_46/U6
*864 pe_u/pe10/sub_46/U7
*865 pe_u/pe10/sub_46/U8
*866 pe_u/pe10/sub_46/U9
*867 pe_u/pe10/sub_46/U10
*868 pe_u/pe11/Accumulate_reg[0]
*869 pe_u/pe11/Accumulate_reg[7]
*870 pe_u/pe11/Accumulate_reg[6]
*871 pe_u/pe11/Accumulate_reg[5]
*872 pe_u/pe11/Accumulate_reg[4]
*873 pe_u/pe11/Accumulate_reg[3]
*874 pe_u/pe11/Accumulate_reg[2]
*875 pe_u/pe11/Accumulate_reg[1]
*876 pe_u/pe11/U15
*877 pe_u/pe11/U16
*878 pe_u/pe11/U17
*879 pe_u/pe11/U18
*880 pe_u/pe11/U19
*881 pe_u/pe11/U20
*882 pe_u/pe11/U21
*883 pe_u/pe11/U22
*884 pe_u/pe11/Rpipe_reg[7]
*885 pe_u/pe11/Rpipe_reg[6]
*886 pe_u/pe11/Rpipe_reg[5]
*887 pe_u/pe11/Rpipe_reg[4]
*888 pe_u/pe11/Rpipe_reg[3]
*889 pe_u/pe11/Rpipe_reg[2]
*890 pe_u/pe11/Rpipe_reg[1]
*891 pe_u/pe11/Rpipe_reg[0]
*892 pe_u/pe11/U3
*893 pe_u/pe11/U4
*894 pe_u/pe11/U5
*895 pe_u/pe11/U6
*896 pe_u/pe11/U7
*897 pe_u/pe11/U8
*898 pe_u/pe11/U9
*899 pe_u/pe11/U10
*900 pe_u/pe11/U11
*901 pe_u/pe11/U12
*902 pe_u/pe11/add_52/U1_7
*903 pe_u/pe11/add_52/U1_6
*904 pe_u/pe11/add_52/U1_5
*905 pe_u/pe11/add_52/U1_4
*906 pe_u/pe11/add_52/U1_3
*907 pe_u/pe11/add_52/U1_2
*908 pe_u/pe11/add_52/U1_1
*909 pe_u/pe11/add_52/U1
*910 pe_u/pe11/add_52/U2
*911 pe_u/pe11/sub_46/U2_7
*912 pe_u/pe11/sub_46/U2_1
*913 pe_u/pe11/sub_46/U2_6
*914 pe_u/pe11/sub_46/U2_5
*915 pe_u/pe11/sub_46/U2_4
*916 pe_u/pe11/sub_46/U2_3
*917 pe_u/pe11/sub_46/U2_2
*918 pe_u/pe11/sub_46/U1
*919 pe_u/pe11/sub_46/U2
*920 pe_u/pe11/sub_46/U3
*921 pe_u/pe11/sub_46/U4
*922 pe_u/pe11/sub_46/U5
*923 pe_u/pe11/sub_46/U6
*924 pe_u/pe11/sub_46/U7
*925 pe_u/pe11/sub_46/U8
*926 pe_u/pe11/sub_46/U9
*927 pe_u/pe11/sub_46/U10
*928 pe_u/pe12/Accumulate_reg[0]
*929 pe_u/pe12/Accumulate_reg[7]
*930 pe_u/pe12/Accumulate_reg[6]
*931 pe_u/pe12/Accumulate_reg[5]
*932 pe_u/pe12/Accumulate_reg[4]
*933 pe_u/pe12/Accumulate_reg[3]
*934 pe_u/pe12/Accumulate_reg[2]
*935 pe_u/pe12/Accumulate_reg[1]
*936 pe_u/pe12/U15
*937 pe_u/pe12/U16
*938 pe_u/pe12/U17
*939 pe_u/pe12/U18
*940 pe_u/pe12/U19
*941 pe_u/pe12/U20
*942 pe_u/pe12/U21
*943 pe_u/pe12/U22
*944 pe_u/pe12/Rpipe_reg[7]
*945 pe_u/pe12/Rpipe_reg[6]
*946 pe_u/pe12/Rpipe_reg[5]
*947 pe_u/pe12/Rpipe_reg[4]
*948 pe_u/pe12/Rpipe_reg[3]
*949 pe_u/pe12/Rpipe_reg[2]
*950 pe_u/pe12/Rpipe_reg[1]
*951 pe_u/pe12/Rpipe_reg[0]
*952 pe_u/pe12/U3
*953 pe_u/pe12/U4
*954 pe_u/pe12/U5
*955 pe_u/pe12/U6
*956 pe_u/pe12/U7
*957 pe_u/pe12/U8
*958 pe_u/pe12/U9
*959 pe_u/pe12/U10
*960 pe_u/pe12/U11
*961 pe_u/pe12/U12
*962 pe_u/pe12/add_52/U1_7
*963 pe_u/pe12/add_52/U1_6
*964 pe_u/pe12/add_52/U1_5
*965 pe_u/pe12/add_52/U1_4
*966 pe_u/pe12/add_52/U1_3
*967 pe_u/pe12/add_52/U1_2
*968 pe_u/pe12/add_52/U1_1
*969 pe_u/pe12/add_52/U1
*970 pe_u/pe12/add_52/U2
*971 pe_u/pe12/sub_46/U2_7
*972 pe_u/pe12/sub_46/U2_6
*973 pe_u/pe12/sub_46/U2_5
*974 pe_u/pe12/sub_46/U2_4
*975 pe_u/pe12/sub_46/U2_3
*976 pe_u/pe12/sub_46/U2_2
*977 pe_u/pe12/sub_46/U2_1
*978 pe_u/pe12/sub_46/U1
*979 pe_u/pe12/sub_46/U2
*980 pe_u/pe12/sub_46/U3
*981 pe_u/pe12/sub_46/U4
*982 pe_u/pe12/sub_46/U5
*983 pe_u/pe12/sub_46/U6
*984 pe_u/pe12/sub_46/U7
*985 pe_u/pe12/sub_46/U8
*986 pe_u/pe12/sub_46/U9
*987 pe_u/pe12/sub_46/U10
*988 pe_u/pe13/Accumulate_reg[0]
*989 pe_u/pe13/Accumulate_reg[7]
*990 pe_u/pe13/Accumulate_reg[6]
*991 pe_u/pe13/Accumulate_reg[5]
*992 pe_u/pe13/Accumulate_reg[4]
*993 pe_u/pe13/Accumulate_reg[3]
*994 pe_u/pe13/Accumulate_reg[2]
*995 pe_u/pe13/Accumulate_reg[1]
*996 pe_u/pe13/U15
*997 pe_u/pe13/U16
*998 pe_u/pe13/U17
*999 pe_u/pe13/U18
*1000 pe_u/pe13/U19
*1001 pe_u/pe13/U20
*1002 pe_u/pe13/U21
*1003 pe_u/pe13/U22
*1004 pe_u/pe13/Rpipe_reg[7]
*1005 pe_u/pe13/Rpipe_reg[6]
*1006 pe_u/pe13/Rpipe_reg[5]
*1007 pe_u/pe13/Rpipe_reg[4]
*1008 pe_u/pe13/Rpipe_reg[3]
*1009 pe_u/pe13/Rpipe_reg[2]
*1010 pe_u/pe13/Rpipe_reg[1]
*1011 pe_u/pe13/Rpipe_reg[0]
*1012 pe_u/pe13/U3
*1013 pe_u/pe13/U4
*1014 pe_u/pe13/U5
*1015 pe_u/pe13/U6
*1016 pe_u/pe13/U7
*1017 pe_u/pe13/U8
*1018 pe_u/pe13/U9
*1019 pe_u/pe13/U10
*1020 pe_u/pe13/U11
*1021 pe_u/pe13/U12
*1022 pe_u/pe13/add_52/U1_7
*1023 pe_u/pe13/add_52/U1_6
*1024 pe_u/pe13/add_52/U1_5
*1025 pe_u/pe13/add_52/U1_4
*1026 pe_u/pe13/add_52/U1_3
*1027 pe_u/pe13/add_52/U1_2
*1028 pe_u/pe13/add_52/U1_1
*1029 pe_u/pe13/add_52/U1
*1030 pe_u/pe13/add_52/U2
*1031 pe_u/pe13/sub_46/U2_7
*1032 pe_u/pe13/sub_46/U2_6
*1033 pe_u/pe13/sub_46/U2_5
*1034 pe_u/pe13/sub_46/U2_4
*1035 pe_u/pe13/sub_46/U2_3
*1036 pe_u/pe13/sub_46/U2_2
*1037 pe_u/pe13/sub_46/U2_1
*1038 pe_u/pe13/sub_46/U1
*1039 pe_u/pe13/sub_46/U2
*1040 pe_u/pe13/sub_46/U3
*1041 pe_u/pe13/sub_46/U4
*1042 pe_u/pe13/sub_46/U5
*1043 pe_u/pe13/sub_46/U6
*1044 pe_u/pe13/sub_46/U7
*1045 pe_u/pe13/sub_46/U8
*1046 pe_u/pe13/sub_46/U9
*1047 pe_u/pe13/sub_46/U10
*1048 pe_u/pe14/Accumulate_reg[0]
*1049 pe_u/pe14/Accumulate_reg[7]
*1050 pe_u/pe14/Accumulate_reg[6]
*1051 pe_u/pe14/Accumulate_reg[5]
*1052 pe_u/pe14/Accumulate_reg[4]
*1053 pe_u/pe14/Accumulate_reg[3]
*1054 pe_u/pe14/Accumulate_reg[2]
*1055 pe_u/pe14/Accumulate_reg[1]
*1056 pe_u/pe14/U15
*1057 pe_u/pe14/U16
*1058 pe_u/pe14/U17
*1059 pe_u/pe14/U18
*1060 pe_u/pe14/U19
*1061 pe_u/pe14/U20
*1062 pe_u/pe14/U21
*1063 pe_u/pe14/U22
*1064 pe_u/pe14/Rpipe_reg[7]
*1065 pe_u/pe14/Rpipe_reg[6]
*1066 pe_u/pe14/Rpipe_reg[5]
*1067 pe_u/pe14/Rpipe_reg[4]
*1068 pe_u/pe14/Rpipe_reg[3]
*1069 pe_u/pe14/Rpipe_reg[2]
*1070 pe_u/pe14/Rpipe_reg[1]
*1071 pe_u/pe14/Rpipe_reg[0]
*1072 pe_u/pe14/U3
*1073 pe_u/pe14/U4
*1074 pe_u/pe14/U5
*1075 pe_u/pe14/U6
*1076 pe_u/pe14/U7
*1077 pe_u/pe14/U8
*1078 pe_u/pe14/U9
*1079 pe_u/pe14/U10
*1080 pe_u/pe14/U11
*1081 pe_u/pe14/U12
*1082 pe_u/pe14/add_52/U1_7
*1083 pe_u/pe14/add_52/U1_6
*1084 pe_u/pe14/add_52/U1_5
*1085 pe_u/pe14/add_52/U1_4
*1086 pe_u/pe14/add_52/U1_3
*1087 pe_u/pe14/add_52/U1_2
*1088 pe_u/pe14/add_52/U1_1
*1089 pe_u/pe14/add_52/U1
*1090 pe_u/pe14/add_52/U2
*1091 pe_u/pe14/sub_46/U2_7
*1092 pe_u/pe14/sub_46/U2_1
*1093 pe_u/pe14/sub_46/U2_6
*1094 pe_u/pe14/sub_46/U2_5
*1095 pe_u/pe14/sub_46/U2_4
*1096 pe_u/pe14/sub_46/U2_3
*1097 pe_u/pe14/sub_46/U2_2
*1098 pe_u/pe14/sub_46/U1
*1099 pe_u/pe14/sub_46/U2
*1100 pe_u/pe14/sub_46/U3
*1101 pe_u/pe14/sub_46/U4
*1102 pe_u/pe14/sub_46/U5
*1103 pe_u/pe14/sub_46/U6
*1104 pe_u/pe14/sub_46/U7
*1105 pe_u/pe14/sub_46/U8
*1106 pe_u/pe14/sub_46/U9
*1107 pe_u/pe14/sub_46/U10
*1108 pe_u/pe15/Accumulate_reg[0]
*1109 pe_u/pe15/Accumulate_reg[7]
*1110 pe_u/pe15/Accumulate_reg[6]
*1111 pe_u/pe15/Accumulate_reg[5]
*1112 pe_u/pe15/Accumulate_reg[4]
*1113 pe_u/pe15/Accumulate_reg[3]
*1114 pe_u/pe15/Accumulate_reg[2]
*1115 pe_u/pe15/Accumulate_reg[1]
*1116 pe_u/pe15/U15
*1117 pe_u/pe15/U16
*1118 pe_u/pe15/U17
*1119 pe_u/pe15/U18
*1120 pe_u/pe15/U19
*1121 pe_u/pe15/U20
*1122 pe_u/pe15/U21
*1123 pe_u/pe15/U22
*1124 pe_u/pe15/U3
*1125 pe_u/pe15/U4
*1126 pe_u/pe15/U5
*1127 pe_u/pe15/U6
*1128 pe_u/pe15/U7
*1129 pe_u/pe15/U8
*1130 pe_u/pe15/U9
*1131 pe_u/pe15/U10
*1132 pe_u/pe15/U11
*1133 pe_u/pe15/U12
*1134 pe_u/pe15/add_77/U1_7
*1135 pe_u/pe15/add_77/U1_6
*1136 pe_u/pe15/add_77/U1_5
*1137 pe_u/pe15/add_77/U1_4
*1138 pe_u/pe15/add_77/U1_3
*1139 pe_u/pe15/add_77/U1_2
*1140 pe_u/pe15/add_77/U1_1
*1141 pe_u/pe15/add_77/U1
*1142 pe_u/pe15/add_77/U2
*1143 pe_u/pe15/sub_71/U2_7
*1144 pe_u/pe15/sub_71/U2_1
*1145 pe_u/pe15/sub_71/U2_6
*1146 pe_u/pe15/sub_71/U2_5
*1147 pe_u/pe15/sub_71/U2_4
*1148 pe_u/pe15/sub_71/U2_3
*1149 pe_u/pe15/sub_71/U2_2
*1150 pe_u/pe15/sub_71/U1
*1151 pe_u/pe15/sub_71/U2
*1152 pe_u/pe15/sub_71/U3
*1153 pe_u/pe15/sub_71/U4
*1154 pe_u/pe15/sub_71/U5
*1155 pe_u/pe15/sub_71/U6
*1156 pe_u/pe15/sub_71/U7
*1157 pe_u/pe15/sub_71/U8
*1158 pe_u/pe15/sub_71/U9
*1159 pe_u/pe15/sub_71/U10
*1160 comp_u/U3
*1161 comp_u/U5
*1162 comp_u/U6
*1163 comp_u/U7
*1164 comp_u/U8
*1165 comp_u/U9
*1166 comp_u/U10
*1167 comp_u/U11
*1168 comp_u/U14
*1169 comp_u/U16
*1170 comp_u/U19
*1171 comp_u/U21
*1172 comp_u/U23
*1173 comp_u/U26
*1174 comp_u/U28
*1175 comp_u/U31
*1176 comp_u/U33
*1177 comp_u/U35
*1178 comp_u/U38
*1179 comp_u/U40
*1180 comp_u/U43
*1181 comp_u/U45
*1182 comp_u/U47
*1183 comp_u/U50
*1184 comp_u/U52
*1185 comp_u/U55
*1186 comp_u/U57
*1187 comp_u/U59
*1188 comp_u/U62
*1189 comp_u/U64
*1190 comp_u/U67
*1191 comp_u/U69
*1192 comp_u/U71
*1193 comp_u/U74
*1194 comp_u/U76
*1195 comp_u/U79
*1196 comp_u/U81
*1197 comp_u/U83
*1198 comp_u/U86
*1199 comp_u/U88
*1200 comp_u/U91
*1201 comp_u/U93
*1202 comp_u/U95
*1203 comp_u/U98
*1204 comp_u/U100
*1205 comp_u/U103
*1206 comp_u/U106
*1207 comp_u/U108
*1208 comp_u/U109
*1209 comp_u/U110
*1210 comp_u/U114
*1211 comp_u/U115
*1212 comp_u/U116
*1213 comp_u/U117
*1214 comp_u/U118
*1215 comp_u/U119
*1216 comp_u/U121
*1217 comp_u/U122
*1218 comp_u/U124
*1219 comp_u/U125
*1220 comp_u/U126
*1221 comp_u/U128
*1222 comp_u/motionY_reg[0]
*1223 comp_u/motionY_reg[1]
*1224 comp_u/motionY_reg[2]
*1225 comp_u/motionY_reg[3]
*1226 comp_u/motionX_reg[3]
*1227 comp_u/motionX_reg[2]
*1228 comp_u/motionX_reg[1]
*1229 comp_u/motionX_reg[0]
*1230 comp_u/BestDist_reg[0]
*1231 comp_u/BestDist_reg[1]
*1232 comp_u/BestDist_reg[2]
*1233 comp_u/BestDist_reg[3]
*1234 comp_u/BestDist_reg[4]
*1235 comp_u/BestDist_reg[5]
*1236 comp_u/BestDist_reg[6]
*1237 comp_u/BestDist_reg[7]
*1238 comp_u/U4
*1239 comp_u/U12
*1240 comp_u/U13
*1241 comp_u/U15
*1242 comp_u/U17
*1243 comp_u/U18
*1244 comp_u/U20
*1245 comp_u/U22
*1246 comp_u/U24
*1247 optlc_13
*1248 comp_u/U27
*1249 comp_u/U29
*1250 comp_u/U30
*1251 comp_u/U32
*1252 comp_u/U34
*1253 comp_u/U36
*1254 comp_u/U37
*1255 comp_u/U39
*1256 comp_u/U41
*1257 comp_u/U42
*1258 comp_u/U44
*1259 comp_u/U46
*1260 comp_u/U48
*1261 comp_u/U49
*1262 comp_u/U51
*1263 comp_u/U53
*1264 comp_u/U54
*1265 comp_u/U56
*1266 comp_u/U58
*1267 comp_u/U60
*1268 comp_u/U61
*1269 comp_u/U63
*1270 comp_u/U65
*1271 comp_u/U66
*1272 comp_u/U68
*1273 comp_u/U70
*1274 comp_u/U72
*1275 comp_u/U73
*1276 comp_u/U75
*1277 comp_u/U77
*1278 comp_u/U78
*1279 comp_u/U80
*1280 comp_u/U82
*1281 comp_u/U84
*1282 comp_u/U85
*1283 comp_u/U87
*1284 comp_u/U89
*1285 comp_u/U90
*1286 comp_u/U92
*1287 comp_u/U94
*1288 comp_u/U96
*1289 comp_u/U97
*1290 comp_u/U99
*1291 comp_u/U101
*1292 comp_u/U102
*1293 comp_u/U104
*1294 comp_u/U105
*1295 comp_u/U107
*1296 comp_u/U111
*1297 comp_u/U112
*1298 comp_u/U113
*1299 comp_u/U120
*1300 comp_u/U123
*1301 comp_u/U127
*1302 comp_u/U129
*1303 comp_u/U130
*1304 comp_u/U131
*1305 comp_u/U132
*1306 comp_u/U133
*1307 comp_u/U134
*1308 comp_u/U135
*1309 comp_u/U136
*1310 comp_u/U137
*1311 comp_u/U138
*1312 comp_u/U139
*1313 comp_u/U140
*1314 comp_u/U141
*1315 comp_u/U142
*1316 comp_u/U143
*1317 comp_u/U144